CRYSTAL
PRIMVEC
 5.24000000000000 5.24000000000000 0.00000000000000
 0.00000000000000 5.24000000000000 5.24000000000000
 5.24000000000000 0.00000000000000 5.24000000000000
PRIMCOORD
 10 1
 55     2.62000000000000     2.62000000000000     2.62000000000000
 55     7.86000000000000     7.86000000000000     7.86000000000000
 47     5.24000000000000     5.24000000000000     5.24000000000000
 49     0.00000000000000     0.00000000000000     0.00000000000000
 17     5.24000000000000     2.62000000000000     5.24000000000000
 17     2.62000000000000     5.24000000000000     5.24000000000000
 17     5.24000000000000     5.24000000000000     2.62000000000000
 17     5.24000000000000     7.86000000000000     5.24000000000000
 17     7.86000000000000     5.24000000000000     5.24000000000000
 17     5.24000000000000     5.24000000000000     7.86000000000000
